Circuit: * C:\Users\User\OneDrive - University of Cape Town\Desktop\EEE3094S\EEE3094S-2023\LAB2\REPORT\Draft1.asc

Direct Newton iteration failed to find .op point.  (Use ".option noopiter" to skip.)
Starting Gmin stepping
Gmin = 10
Gmin = 1.07374
Gmin = 0.115292
Gmin = 0.0123794
Gmin = 0.00132923
Gmin = 0.000142725
Gmin = 1.5325e-005
Gmin = 1.6455e-006
Gmin = 1.76685e-007
Gmin = 1.89714e-008
Gmin = 2.03704e-009
Gmin = 2.18725e-010
Gmin = 2.34854e-011
Gmin = 2.52173e-012
Gmin = 2.70769e-013
Gmin = 0
Gmin stepping succeeded in finding the operating point.


Date: Thu Oct 05 11:27:45 2023
Total elapsed time: 0.068 seconds.

tnom = 27
temp = 27
method = modified trap
totiter = 4044
traniter = 3694
tranpoints = 1848
accept = 1388
rejected = 460
matrix size = 12
fillins = 5
solver = Normal
Matrix Compiler1: 858 bytes object code size  0.2/0.1/[0.1]
Matrix Compiler2: 1.17 KB object code size  0.2/0.2/[0.1]

